data/ENWL/enwl_kron_reduced/network_23/Feeder_4/Loads.txt
! Imported from Loads.txt, with modified neutral terminal
! --------------------------------------------------------------------------
New Load.LOAD1 Phases=1 Bus1=158.1 kV=0.23 kW=1.968  PF=0.95
New Load.LOAD2 Phases=1 Bus1=159.2 kV=0.23 kW=0.306  PF=0.95
New Load.LOAD3 Phases=1 Bus1=160.3 kV=0.23 kW=2.94  PF=0.95
New Load.LOAD4 Phases=1 Bus1=161.1 kV=0.23 kW=0.324  PF=0.95
New Load.LOAD5 Phases=1 Bus1=162.2 kV=0.23 kW=1.332  PF=0.95
New Load.LOAD6 Phases=1 Bus1=163.3 kV=0.23 kW=3.0540000000000003  PF=0.95
New Load.LOAD7 Phases=1 Bus1=164.1 kV=0.23 kW=2.0580000000000003  PF=0.95
New Load.LOAD8 Phases=1 Bus1=283.3 kV=0.23 kW=0.29400000000000004  PF=0.95
New Load.LOAD9 Phases=1 Bus1=339.3 kV=0.23 kW=0.312  PF=0.95
New Load.LOAD10 Phases=1 Bus1=381.3 kV=0.23 kW=0.27  PF=0.95
New Load.LOAD11 Phases=1 Bus1=382.3 kV=0.23 kW=0.33  PF=0.95
New Load.LOAD12 Phases=1 Bus1=383.3 kV=0.23 kW=0.33  PF=0.95
New Load.LOAD13 Phases=1 Bus1=384.3 kV=0.23 kW=0.246  PF=0.95
New Load.LOAD14 Phases=1 Bus1=385.3 kV=0.23 kW=2.04  PF=0.95
New Load.LOAD15 Phases=1 Bus1=401.2 kV=0.23 kW=0.8280000000000001  PF=0.95
New Load.LOAD16 Phases=1 Bus1=402.3 kV=0.23 kW=0.11399999999999999  PF=0.95
New Load.LOAD17 Phases=1 Bus1=403.1 kV=0.23 kW=0.28800000000000003  PF=0.95
New Load.LOAD18 Phases=1 Bus1=404.2 kV=0.23 kW=0.324  PF=0.95
New Load.LOAD19 Phases=1 Bus1=405.3 kV=0.23 kW=1.944  PF=0.95
New Load.LOAD20 Phases=1 Bus1=406.1 kV=0.23 kW=0.264  PF=0.95
New Load.LOAD21 Phases=1 Bus1=423.2 kV=0.23 kW=0.336  PF=0.95
New Load.LOAD22 Phases=1 Bus1=451.3 kV=0.23 kW=0.966  PF=0.95
New Load.LOAD23 Phases=1 Bus1=452.1 kV=0.23 kW=0.246  PF=0.95
New Load.LOAD24 Phases=1 Bus1=453.2 kV=0.23 kW=1.956  PF=0.95
New Load.LOAD25 Phases=1 Bus1=455.3 kV=0.23 kW=0.29400000000000004  PF=0.95
New Load.LOAD26 Phases=1 Bus1=456.3 kV=0.23 kW=0.336  PF=0.95
New Load.LOAD27 Phases=1 Bus1=457.3 kV=0.23 kW=0.27  PF=0.95
New Load.LOAD28 Phases=1 Bus1=472.3 kV=0.23 kW=0.276  PF=0.95
New Load.LOAD29 Phases=1 Bus1=473.3 kV=0.23 kW=0.34800000000000003  PF=0.95
New Load.LOAD30 Phases=1 Bus1=474.3 kV=0.23 kW=0.264  PF=0.95
New Load.LOAD31 Phases=1 Bus1=475.3 kV=0.23 kW=0.28200000000000003  PF=0.95
New Load.LOAD32 Phases=1 Bus1=476.3 kV=0.23 kW=0.342  PF=0.95
New Load.LOAD33 Phases=1 Bus1=480.1 kV=0.23 kW=0.28800000000000003  PF=0.95
New Load.LOAD34 Phases=1 Bus1=481.2 kV=0.23 kW=2.748  PF=0.95
New Load.LOAD35 Phases=1 Bus1=482.3 kV=0.23 kW=0.9612  PF=0.95
New Load.LOAD36 Phases=1 Bus1=483.1 kV=0.23 kW=0.318  PF=0.95
New Load.LOAD37 Phases=1 Bus1=484.2 kV=0.23 kW=0.28200000000000003  PF=0.95
New Load.LOAD38 Phases=1 Bus1=485.3 kV=0.23 kW=0.276  PF=0.95
New Load.LOAD39 Phases=1 Bus1=486.1 kV=0.23 kW=9.738  PF=0.95
New Load.LOAD40 Phases=1 Bus1=487.2 kV=0.23 kW=0.28800000000000003  PF=0.95
New Load.LOAD41 Phases=1 Bus1=488.3 kV=0.23 kW=0.28800000000000003  PF=0.95
New Load.LOAD42 Phases=1 Bus1=552.1 kV=0.23 kW=0.15000000000000002  PF=0.95
New Load.LOAD43 Phases=1 Bus1=553.2 kV=0.23 kW=0.318  PF=0.95
New Load.LOAD44 Phases=1 Bus1=554.3 kV=0.23 kW=1.8719999999999999  PF=0.95
New Load.LOAD45 Phases=1 Bus1=555.1 kV=0.23 kW=5.586  PF=0.95
New Load.LOAD46 Phases=1 Bus1=556.2 kV=0.23 kW=0.336  PF=0.95
New Load.LOAD47 Phases=1 Bus1=557.3 kV=0.23 kW=0.354  PF=0.95
New Load.LOAD48 Phases=1 Bus1=558.1 kV=0.23 kW=0.21599999999999997  PF=0.95
New Load.LOAD49 Phases=1 Bus1=578.2 kV=0.23 kW=0.324  PF=0.95
New Load.LOAD50 Phases=1 Bus1=579.3 kV=0.23 kW=0.318  PF=0.95
New Load.LOAD51 Phases=1 Bus1=580.1 kV=0.23 kW=0.33  PF=0.95
New Load.LOAD52 Phases=1 Bus1=581.2 kV=0.23 kW=0.22799999999999998  PF=0.95
New Load.LOAD53 Phases=1 Bus1=598.3 kV=0.23 kW=0.9179999999999999  PF=0.95
New Load.LOAD54 Phases=1 Bus1=666.3 kV=0.23 kW=0.28800000000000003  PF=0.95
New Load.LOAD55 Phases=1 Bus1=685.2 kV=0.23 kW=0.4356  PF=0.95
New Load.LOAD56 Phases=1 Bus1=704.1 kV=0.23 kW=0.402  PF=0.95
New Load.LOAD57 Phases=1 Bus1=705.1 kV=0.23 kW=0.30000000000000004  PF=0.95
New Load.LOAD58 Phases=1 Bus1=716.3 kV=0.23 kW=0.354  PF=0.95
New Load.LOAD59 Phases=1 Bus1=731.2 kV=0.23 kW=0.264  PF=0.95
New Load.LOAD60 Phases=1 Bus1=739.3 kV=0.23 kW=0.30000000000000004  PF=0.95
New Load.LOAD61 Phases=1 Bus1=777.1 kV=0.23 kW=0.28800000000000003  PF=0.95
New Load.LOAD62 Phases=1 Bus1=792.3 kV=0.23 kW=1.476  PF=0.95
New Load.LOAD63 Phases=1 Bus1=814.2 kV=0.23 kW=1.242  PF=0.95
New Load.LOAD64 Phases=1 Bus1=832.3 kV=0.23 kW=1.536  PF=0.95
New Load.LOAD65 Phases=1 Bus1=858.3 kV=0.23 kW=0.30000000000000004  PF=0.95
New Load.LOAD66 Phases=1 Bus1=873.1 kV=0.23 kW=0.306  PF=0.95
New Load.LOAD67 Phases=1 Bus1=880.1 kV=0.23 kW=0.318  PF=0.95
New Load.LOAD68 Phases=1 Bus1=908.2 kV=0.23 kW=0.33  PF=0.95
New Load.LOAD69 Phases=1 Bus1=916.2 kV=0.23 kW=0.276  PF=0.95
New Load.LOAD70 Phases=1 Bus1=923.3 kV=0.23 kW=0.246  PF=0.95
New Load.LOAD71 Phases=1 Bus1=931.1 kV=0.23 kW=0.30000000000000004  PF=0.95
New Load.LOAD72 Phases=1 Bus1=934.1 kV=0.23 kW=0.264  PF=0.95
New Load.LOAD73 Phases=1 Bus1=961.2 kV=0.23 kW=1.9056  PF=0.95
New Load.LOAD74 Phases=1 Bus1=978.3 kV=0.23 kW=0.306  PF=0.95
New Load.LOAD75 Phases=1 Bus1=994.1 kV=0.23 kW=6.7476  PF=0.95
New Load.LOAD76 Phases=1 Bus1=1017.2 kV=0.23 kW=0.21599999999999997  PF=0.95
New Load.LOAD77 Phases=1 Bus1=1020.1 kV=0.23 kW=0.34800000000000003  PF=0.95
New Load.LOAD78 Phases=1 Bus1=1042.3 kV=0.23 kW=2.9939999999999998  PF=0.95
New Load.LOAD79 Phases=1 Bus1=1075.2 kV=0.23 kW=0.336  PF=0.95
New Load.LOAD80 Phases=1 Bus1=1097.3 kV=0.23 kW=0.28800000000000003  PF=0.95
New Load.LOAD81 Phases=1 Bus1=1106.3 kV=0.23 kW=0.7452000000000001  PF=0.95
New Load.LOAD82 Phases=1 Bus1=1113.1 kV=0.23 kW=1.158  PF=0.95
New Load.LOAD83 Phases=1 Bus1=1148.2 kV=0.23 kW=1.0379999999999998  PF=0.95
New Load.LOAD84 Phases=1 Bus1=1155.3 kV=0.23 kW=0.29400000000000004  PF=0.95
New Load.LOAD85 Phases=1 Bus1=1179.1 kV=0.23 kW=0.318  PF=0.95
New Load.LOAD86 Phases=1 Bus1=1202.3 kV=0.23 kW=0.28200000000000003  PF=0.95
New Load.LOAD87 Phases=1 Bus1=1209.2 kV=0.23 kW=0.318  PF=0.95
New Load.LOAD88 Phases=1 Bus1=1216.1 kV=0.23 kW=0.4644  PF=0.95
New Load.LOAD89 Phases=1 Bus1=1224.2 kV=0.23 kW=0.29400000000000004  PF=0.95
! --------------------------------------------------------------------------